/*--------------------------------*- C++ -*----------------------------------*\
  =========                 |
  \\      /  F ield         | OpenFOAM: The Open Source CFD Toolbox
   \\    /   O peration     | Website:  https://openfoam.org
    \\  /    A nd           | Version:  9
     \\/     M anipulation  |
\*---------------------------------------------------------------------------*/
FoamFile
{
    format      ascii;
    class       dictionary;
    object      blockMeshDict;
}
// * * * * * * * * * * * * * * * * * * * * * * * * * * * * * * * * * * * * * //

convertToMeters 0.01;

vertices
(
	( 0 2  0) // 0
	( 2 2  0) // 1
	( 2 4  0) // 2
	( 0 4  0) // 3
	( 17 2 0) // 4
	( 17 4 0) // 5
	( 2 0  0) // 6
	(17 0  0) // 7

	( 0 2  1)
	( 2 2  1)
	( 2 4  1)
	( 0 4  1)
	( 17 2 1)
	( 17 4 1)
	( 2 0  1)
	(17 0  1)
);

blocks
(
	hex (0 1 2 3 8 9 10 11) (20 20 1) simpleGrading (1 1 1)
	hex (2 1 4 5 10 9 12 13) (20 150 1) simpleGradig (1 1 1)
	hex (1 6 7 4 9 14 15 12) (20 150 1) simpleGrading (1 1 1)
);

edges
(
);

boundary
(
	walls 
	{
		type wall;
		faces
		(
			(2 3 11 10)
			(5 2 10 13)
			(0 1 9 8)
			(1 6 14 9)
			(6 7 15 14)
			(7 4 12 15)
		);
	}
	top_bottom
	{
		type empty;
		faces
		(
			(0 3 2 1)
			(1 2 5 4)
			(1 4 7 6)

			(9 10 11 8)
			(12 13 10 9)
			(14 15 12 9)
		);
	}
	inlet 
	{
		type patch;
		faces
		(
			(3 0 8 11)
		);
	}
	outlet
	{
		type patch;
		faces
		(
			(4 5 13 12)
		);
	}
);

mergePatchPairs
(
);

// ************************************************************************* //
