/*--------------------------------*- C++ -*----------------------------------*\
| =========                 |                                                 |
| \\      /  F ield         | OpenFOAM: The Open Source CFD Toolbox           |
|  \\    /   O peration     | Version:  2.3.0                                 |
|   \\  /    A nd           | Web:      www.OpenFOAM.org                      |
|    \\/     M anipulation  |                                                 |
\*---------------------------------------------------------------------------*/
FoamFile
{
    version     2.0;
    format      ascii;
    class       dictionary;
    location    "system";
    object      fvSchemes;
}
// * * * * * * * * * * * * * * * * * * * * * * * * * * * * * * * * * * * * * //

fluxScheme      HLLC;
fluxSchemes {
	air {
		fluxScheme HLLC;
	}
	dust {
		fluxScheme AUSM+Up;
	}
}

ddtSchemes
{
    default         Euler;
    timeIntegrator  RK2SSP;
}

gradSchemes
{
    default         cellMDLimited leastSquares 1;
}

divSchemes
{
    default         none;
    div(tauMC)      Gauss linear;
    div(alphaRhoPhi.c4,lambda.c4) Riemann;
    div(alphaRhoPhi.air,lambda.air) Riemann;
    div(alphaRhoPhi.dust,lambda.dust) Riemann;
    div((((alpha.air*rho.air)*nuEff.air)*dev2(T(grad(U.air))))) Gauss linear;
}

laplacianSchemes
{
    default         Gauss linear corrected;
}

interpolationSchemes
{
    default             cubic;
    reconstruct(alpha)  vanLeer;
    reconstruct(rho)    vanLeer;
    reconstruct(U)      vanLeerV;
    reconstruct(e)      vanLeer;
    reconstruct(p)      vanLeer;
    reconstruct(c)      vanLeer;
    reconstruct(speedOfSound) vanLeer;
    "reconstruct\(lambda.*\)" vanLeer;
}

snGradSchemes
{
    default         corrected;
}


// ************************************************************************* //
