/*--------------------------------*- C++ -*----------------------------------*\
  | =========                 |                                                 |
  | \\      /  F ield         | OpenFOAM: The Open Source CFD Toolbox           |
  |  \\    /   O peration     | Version:  2.3.0                                 |
  |   \\  /    A nd           | Web:      www.OpenFOAM.org                      |
  |    \\/     M anipulation  |                                                 |
  \*---------------------------------------------------------------------------*/
FoamFile
{
  version     2.0;
  format      ascii;
  class       dictionary;
  location    "system";
  object      setFieldsDict;
}
// * * * * * * * * * * * * * * * * * * * * * * * * * * * * * * * * * * * * * //

fields (alpha.air,alpha.c4,alpha.dust);
nBufferLayers 1;


defaultFieldValues
(
    volScalarFieldValue alpha.air       1
    volScalarFieldValue alpha.c4        0
	volScalarFieldValue alpha.dust		0
);

regions
(
/*
    cylinderToCell
    {
        //level 4;
        //refineInternal yes;

        p1 (-0.15 0.03 0);
        p2 (-0.15 0.03 0.001);
        radius 0.001;


        fieldValues
        (
			volScalarFieldValue alpha.air       0
			volScalarFieldValue alpha.c4        1
			volScalarFieldValue alpha.dust		0
        );
    }
	*/
    boxToCell {
    	box (0.02 0 0) (0.17 0.02 0.001) ;
        fieldValues
        (
			volScalarFieldValue alpha.air       0.5
			volScalarFieldValue alpha.c4        0
			volScalarFieldValue alpha.dust		0.5
        );
    }
 );

// ************************************************************************* //
